data_Crystal_3
_audit_creation_method         'generated by CrystalMaker X for macOS'
_cell_length_a                   5.000000
_cell_length_b                   5.200000
_cell_length_c                   6.000000
_cell_angle_alpha               90.000000
_cell_angle_beta                90.000000
_cell_angle_gamma               90.000000

_symmetry_space_group_name_H-M     'A b m 2'

loop_
_symmetry_equiv_pos_as_xyz
'+x,+y,+z'
'-x,-y,+z'
'+x,1/2-y,+z'
'-x,1/2+y,+z'
'+x,1/2+y,1/2+z'
'-x,1/2-y,1/2+z'
'+x,-y,1/2+z'
'-x,+y,1/2+z'

loop_
_atom_site_label
_atom_site_type_symbol
_atom_site_occupancy
_atom_site_fract_x
_atom_site_fract_y
_atom_site_fract_z
 Site1  Si 1.0  0.0  0.0  0.0

